Circuit: * D:\OneDrive UTN\OneDrive - UTN.BA\UTN\4to\Teoria de Circuitos II\Github TC2\TC2-G2\TP7\EJ2\Simulacion\EJ1.asc


Date: Tue Nov 29 20:47:34 2022
Total elapsed time: 0.070 seconds.

tnom = 27
temp = 27
method = trap
totiter = 0
traniter = 0
tranpoints = 0
accept = 0
rejected = 0
matrix size = 6
fillins = 2
solver = Normal

