Circuit: * C:\Users\matim\OneDrive - UTN.BA\UTN\4to\Teoria de Circuitos II\Github TC2\TC2\Tarea Semanal 13\Simulacion\EJ1.asc


Date: Mon Nov 07 21:36:30 2022
Total elapsed time: 0.044 seconds.

tnom = 27
temp = 27
method = trap
totiter = 0
traniter = 0
tranpoints = 0
accept = 0
rejected = 0
matrix size = 3
fillins = 0
solver = Normal

