Circuit: * C:\Users\matim\OneDrive - UTN.BA\UTN\4to\Teoria de Circuitos II\Github TC2\TC2\Tarea Semanal 13\Simulacion\EJ2.asc


Date: Mon Nov 07 20:20:07 2022
Total elapsed time: 0.037 seconds.

tnom = 27
temp = 27
method = trap
totiter = 0
traniter = 0
tranpoints = 0
accept = 0
rejected = 0
matrix size = 2
fillins = 0
solver = Normal

