Circuit: * D:\OneDrive UTN\OneDrive - UTN.BA\UTN\4to\Teoria de Circuitos II\Trabajos Practicos\TP2\EJ8\Simulaciones\TP8.asc

Direct Newton iteration for .op point succeeded.

Date: Fri Jun 03 00:29:29 2022
Total elapsed time: 0.093 seconds.

tnom = 27
temp = 27
method = trap
totiter = 3
traniter = 0
tranpoints = 0
accept = 0
rejected = 0
matrix size = 6
fillins = 2
solver = Normal
Matrix Compiler1:      16 opcodes
Matrix Compiler2: 428 bytes object code size
